Initialize SIGNATURE TABLE
ST_SET: 1
ST_WAY: 256
ST_TAG_BIT: 16
ST_TAG_MASK: ffff

Initialize PATTERN TABLE
PT_SET: 512
PT_WAY: 4
SIG_DELTA_BIT: 7
C_SIG_BIT: 4
C_DELTA_BIT: 4

Initialize PREFETCH FILTER
FILTER_SET: 1024

Initialize PERCEPTRON
PERC_ENTRIES: 4096
PERC_FEATURES: 9

*** ChampSim Multicore Out-of-Order Simulator ***

Warmup Instructions: 200000000
Simulation Instructions: 1000000000
Number of CPUs: 1
LLC sets: 2048
LLC ways: 16
Off-chip DRAM Size: 4096 MB Channels: 1 Width: 64-bit Data Rate: 1600 MT/s

CPU 0 runs ./scratch/user/djimenez/champsim-traces/speccpu2017/xz/623.xalancbmk_s/623.xalancbmk_s-10B.champsimtrace.xz
Heartbeat CPU 0 instructions: 10000001 cycles: 4854024 heartbeat IPC: 2.06015 cumulative IPC: 2.06015 (Simulation time: 0 hr 0 min 18 sec) 
Heartbeat CPU 0 instructions: 20000000 cycles: 9638437 heartbeat IPC: 2.09012 cumulative IPC: 2.07503 (Simulation time: 0 hr 0 min 38 sec) 
Heartbeat CPU 0 instructions: 30000000 cycles: 14530229 heartbeat IPC: 2.04424 cumulative IPC: 2.06466 (Simulation time: 0 hr 0 min 56 sec) 
Heartbeat CPU 0 instructions: 40000000 cycles: 19441313 heartbeat IPC: 2.03621 cumulative IPC: 2.05747 (Simulation time: 0 hr 1 min 15 sec) 
Heartbeat CPU 0 instructions: 50000001 cycles: 24338481 heartbeat IPC: 2.042 cumulative IPC: 2.05436 (Simulation time: 0 hr 1 min 35 sec) 
Heartbeat CPU 0 instructions: 60000000 cycles: 29138420 heartbeat IPC: 2.08336 cumulative IPC: 2.05914 (Simulation time: 0 hr 1 min 53 sec) 
Heartbeat CPU 0 instructions: 70000000 cycles: 34132109 heartbeat IPC: 2.00253 cumulative IPC: 2.05085 (Simulation time: 0 hr 2 min 12 sec) 
Heartbeat CPU 0 instructions: 80000000 cycles: 38917555 heartbeat IPC: 2.08967 cumulative IPC: 2.05563 (Simulation time: 0 hr 2 min 31 sec) 
Heartbeat CPU 0 instructions: 90000001 cycles: 43861353 heartbeat IPC: 2.02274 cumulative IPC: 2.05192 (Simulation time: 0 hr 2 min 50 sec) 
Heartbeat CPU 0 instructions: 100000000 cycles: 48802619 heartbeat IPC: 2.02377 cumulative IPC: 2.04907 (Simulation time: 0 hr 3 min 9 sec) 
Heartbeat CPU 0 instructions: 110000000 cycles: 53838691 heartbeat IPC: 1.98567 cumulative IPC: 2.04314 (Simulation time: 0 hr 3 min 28 sec) 
Heartbeat CPU 0 instructions: 120000000 cycles: 58633966 heartbeat IPC: 2.08539 cumulative IPC: 2.0466 (Simulation time: 0 hr 3 min 47 sec) 
Heartbeat CPU 0 instructions: 130000003 cycles: 63480304 heartbeat IPC: 2.06341 cumulative IPC: 2.04788 (Simulation time: 0 hr 4 min 6 sec) 
Heartbeat CPU 0 instructions: 140000000 cycles: 68481968 heartbeat IPC: 1.99933 cumulative IPC: 2.04433 (Simulation time: 0 hr 4 min 25 sec) 
Heartbeat CPU 0 instructions: 150000000 cycles: 73417840 heartbeat IPC: 2.02598 cumulative IPC: 2.0431 (Simulation time: 0 hr 4 min 43 sec) 
Heartbeat CPU 0 instructions: 160000000 cycles: 78293430 heartbeat IPC: 2.05103 cumulative IPC: 2.04359 (Simulation time: 0 hr 5 min 2 sec) 
Heartbeat CPU 0 instructions: 170000000 cycles: 83054069 heartbeat IPC: 2.10056 cumulative IPC: 2.04686 (Simulation time: 0 hr 5 min 20 sec) 
Heartbeat CPU 0 instructions: 180000000 cycles: 87934227 heartbeat IPC: 2.04911 cumulative IPC: 2.04698 (Simulation time: 0 hr 5 min 39 sec) 
Heartbeat CPU 0 instructions: 190000001 cycles: 92778447 heartbeat IPC: 2.06432 cumulative IPC: 2.04789 (Simulation time: 0 hr 5 min 58 sec) 
Heartbeat CPU 0 instructions: 200000000 cycles: 97723626 heartbeat IPC: 2.02217 cumulative IPC: 2.04659 (Simulation time: 0 hr 6 min 16 sec) 

Warmup complete CPU 0 instructions: 200000001 cycles: 97723627 (Simulation time: 0 hr 6 min 16 sec) 

Heartbeat CPU 0 instructions: 210000001 cycles: 131656978 heartbeat IPC: 0.294695 cumulative IPC: 0.294695 (Simulation time: 0 hr 6 min 53 sec) 
Heartbeat CPU 0 instructions: 220000000 cycles: 165025276 heartbeat IPC: 0.299686 cumulative IPC: 0.29717 (Simulation time: 0 hr 7 min 29 sec) 
Heartbeat CPU 0 instructions: 230000001 cycles: 195510484 heartbeat IPC: 0.328028 cumulative IPC: 0.30679 (Simulation time: 0 hr 8 min 4 sec) 
Heartbeat CPU 0 instructions: 240000000 cycles: 230307376 heartbeat IPC: 0.287382 cumulative IPC: 0.301696 (Simulation time: 0 hr 8 min 41 sec) 
Heartbeat CPU 0 instructions: 250000000 cycles: 264154455 heartbeat IPC: 0.295446 cumulative IPC: 0.300425 (Simulation time: 0 hr 9 min 17 sec) 
Heartbeat CPU 0 instructions: 260000000 cycles: 295481718 heartbeat IPC: 0.319211 cumulative IPC: 0.303401 (Simulation time: 0 hr 9 min 52 sec) 
Heartbeat CPU 0 instructions: 270000000 cycles: 329521221 heartbeat IPC: 0.293776 cumulative IPC: 0.301988 (Simulation time: 0 hr 10 min 29 sec) 
Heartbeat CPU 0 instructions: 280000000 cycles: 363010431 heartbeat IPC: 0.298604 cumulative IPC: 0.30156 (Simulation time: 0 hr 11 min 5 sec) 
Heartbeat CPU 0 instructions: 290000002 cycles: 394739340 heartbeat IPC: 0.31517 cumulative IPC: 0.303014 (Simulation time: 0 hr 11 min 41 sec) 
Heartbeat CPU 0 instructions: 300000000 cycles: 426907413 heartbeat IPC: 0.310867 cumulative IPC: 0.303782 (Simulation time: 0 hr 12 min 17 sec) 
Heartbeat CPU 0 instructions: 310000003 cycles: 460269729 heartbeat IPC: 0.299739 cumulative IPC: 0.30341 (Simulation time: 0 hr 12 min 54 sec) 
Heartbeat CPU 0 instructions: 320000000 cycles: 491616227 heartbeat IPC: 0.319015 cumulative IPC: 0.304652 (Simulation time: 0 hr 13 min 29 sec) 
Heartbeat CPU 0 instructions: 330000001 cycles: 525650463 heartbeat IPC: 0.293822 cumulative IPC: 0.30379 (Simulation time: 0 hr 14 min 6 sec) 
Heartbeat CPU 0 instructions: 340000000 cycles: 556760374 heartbeat IPC: 0.321441 cumulative IPC: 0.304986 (Simulation time: 0 hr 14 min 41 sec) 
Heartbeat CPU 0 instructions: 350000002 cycles: 590972713 heartbeat IPC: 0.292292 cumulative IPC: 0.304106 (Simulation time: 0 hr 15 min 17 sec) 
Heartbeat CPU 0 instructions: 360000000 cycles: 620862838 heartbeat IPC: 0.334559 cumulative IPC: 0.305846 (Simulation time: 0 hr 15 min 51 sec) 
Heartbeat CPU 0 instructions: 370000002 cycles: 653526048 heartbeat IPC: 0.306155 cumulative IPC: 0.305864 (Simulation time: 0 hr 16 min 27 sec) 
Heartbeat CPU 0 instructions: 380000000 cycles: 685873431 heartbeat IPC: 0.309144 cumulative IPC: 0.306044 (Simulation time: 0 hr 17 min 3 sec) 
Heartbeat CPU 0 instructions: 390000000 cycles: 720394761 heartbeat IPC: 0.289676 cumulative IPC: 0.305137 (Simulation time: 0 hr 17 min 40 sec) 
Heartbeat CPU 0 instructions: 400000000 cycles: 754570905 heartbeat IPC: 0.292602 cumulative IPC: 0.304485 (Simulation time: 0 hr 18 min 17 sec) 
Heartbeat CPU 0 instructions: 410000001 cycles: 787307579 heartbeat IPC: 0.305468 cumulative IPC: 0.304531 (Simulation time: 0 hr 18 min 53 sec) 
Heartbeat CPU 0 instructions: 420000000 cycles: 821228789 heartbeat IPC: 0.294801 cumulative IPC: 0.304075 (Simulation time: 0 hr 19 min 30 sec) 
Heartbeat CPU 0 instructions: 430000002 cycles: 855561628 heartbeat IPC: 0.291266 cumulative IPC: 0.303495 (Simulation time: 0 hr 20 min 6 sec) 
Heartbeat CPU 0 instructions: 440000000 cycles: 887014959 heartbeat IPC: 0.317931 cumulative IPC: 0.30407 (Simulation time: 0 hr 20 min 41 sec) 
Heartbeat CPU 0 instructions: 450000002 cycles: 923302861 heartbeat IPC: 0.275574 cumulative IPC: 0.302818 (Simulation time: 0 hr 21 min 19 sec) 
Heartbeat CPU 0 instructions: 460000000 cycles: 957145056 heartbeat IPC: 0.295489 cumulative IPC: 0.302529 (Simulation time: 0 hr 21 min 55 sec) 
Heartbeat CPU 0 instructions: 470000000 cycles: 990841212 heartbeat IPC: 0.29677 cumulative IPC: 0.302312 (Simulation time: 0 hr 22 min 32 sec) 
Heartbeat CPU 0 instructions: 480000000 cycles: 1022182036 heartbeat IPC: 0.319073 cumulative IPC: 0.30288 (Simulation time: 0 hr 23 min 7 sec) 
Heartbeat CPU 0 instructions: 490000000 cycles: 1058391515 heartbeat IPC: 0.276171 cumulative IPC: 0.301873 (Simulation time: 0 hr 23 min 45 sec) 
Heartbeat CPU 0 instructions: 500000000 cycles: 1093353959 heartbeat IPC: 0.286021 cumulative IPC: 0.301317 (Simulation time: 0 hr 24 min 23 sec) 
Heartbeat CPU 0 instructions: 510000000 cycles: 1126469013 heartbeat IPC: 0.301977 cumulative IPC: 0.301338 (Simulation time: 0 hr 24 min 59 sec) 
Heartbeat CPU 0 instructions: 520000000 cycles: 1163176664 heartbeat IPC: 0.272423 cumulative IPC: 0.300342 (Simulation time: 0 hr 25 min 37 sec) 
Heartbeat CPU 0 instructions: 530000003 cycles: 1197683177 heartbeat IPC: 0.2898 cumulative IPC: 0.300011 (Simulation time: 0 hr 26 min 15 sec) 
Heartbeat CPU 0 instructions: 540000000 cycles: 1229284914 heartbeat IPC: 0.316438 cumulative IPC: 0.30047 (Simulation time: 0 hr 26 min 49 sec) 
Heartbeat CPU 0 instructions: 550000002 cycles: 1261141818 heartbeat IPC: 0.313904 cumulative IPC: 0.300838 (Simulation time: 0 hr 27 min 25 sec) 
Heartbeat CPU 0 instructions: 560000000 cycles: 1292067074 heartbeat IPC: 0.32336 cumulative IPC: 0.301421 (Simulation time: 0 hr 28 min 0 sec) 
Heartbeat CPU 0 instructions: 570000002 cycles: 1325376465 heartbeat IPC: 0.300216 cumulative IPC: 0.301388 (Simulation time: 0 hr 28 min 37 sec) 
Heartbeat CPU 0 instructions: 580000000 cycles: 1358127284 heartbeat IPC: 0.305336 cumulative IPC: 0.301491 (Simulation time: 0 hr 29 min 13 sec) 
Heartbeat CPU 0 instructions: 590000002 cycles: 1390866614 heartbeat IPC: 0.305443 cumulative IPC: 0.301591 (Simulation time: 0 hr 29 min 49 sec) 
Heartbeat CPU 0 instructions: 600000000 cycles: 1423129464 heartbeat IPC: 0.309954 cumulative IPC: 0.301794 (Simulation time: 0 hr 30 min 25 sec) 
Heartbeat CPU 0 instructions: 610000002 cycles: 1456440225 heartbeat IPC: 0.300203 cumulative IPC: 0.301755 (Simulation time: 0 hr 31 min 1 sec) 
Heartbeat CPU 0 instructions: 620000000 cycles: 1490292360 heartbeat IPC: 0.295402 cumulative IPC: 0.301601 (Simulation time: 0 hr 31 min 38 sec) 
Heartbeat CPU 0 instructions: 630000000 cycles: 1521534509 heartbeat IPC: 0.32008 cumulative IPC: 0.302006 (Simulation time: 0 hr 32 min 13 sec) 
Heartbeat CPU 0 instructions: 640000000 cycles: 1554863020 heartbeat IPC: 0.300043 cumulative IPC: 0.301962 (Simulation time: 0 hr 32 min 49 sec) 
Heartbeat CPU 0 instructions: 650000001 cycles: 1590769493 heartbeat IPC: 0.278501 cumulative IPC: 0.301397 (Simulation time: 0 hr 33 min 27 sec) 
Heartbeat CPU 0 instructions: 660000000 cycles: 1619027618 heartbeat IPC: 0.35388 cumulative IPC: 0.302372 (Simulation time: 0 hr 34 min 1 sec) 
Heartbeat CPU 0 instructions: 670000003 cycles: 1651983992 heartbeat IPC: 0.303432 cumulative IPC: 0.302395 (Simulation time: 0 hr 34 min 37 sec) 
Heartbeat CPU 0 instructions: 680000000 cycles: 1686177123 heartbeat IPC: 0.292456 cumulative IPC: 0.302181 (Simulation time: 0 hr 35 min 13 sec) 
Heartbeat CPU 0 instructions: 690000000 cycles: 1719681853 heartbeat IPC: 0.298465 cumulative IPC: 0.302104 (Simulation time: 0 hr 35 min 50 sec) 
Heartbeat CPU 0 instructions: 700000000 cycles: 1752008264 heartbeat IPC: 0.309345 cumulative IPC: 0.302245 (Simulation time: 0 hr 36 min 25 sec) 
Heartbeat CPU 0 instructions: 710000001 cycles: 1782260074 heartbeat IPC: 0.330559 cumulative IPC: 0.302754 (Simulation time: 0 hr 37 min 0 sec) 
Heartbeat CPU 0 instructions: 720000000 cycles: 1811651151 heartbeat IPC: 0.340239 cumulative IPC: 0.303397 (Simulation time: 0 hr 37 min 34 sec) 
Heartbeat CPU 0 instructions: 730000002 cycles: 1845191396 heartbeat IPC: 0.298149 cumulative IPC: 0.303296 (Simulation time: 0 hr 38 min 10 sec) 
Heartbeat CPU 0 instructions: 740000000 cycles: 1876365433 heartbeat IPC: 0.32078 cumulative IPC: 0.303602 (Simulation time: 0 hr 38 min 45 sec) 
Heartbeat CPU 0 instructions: 750000001 cycles: 1909729661 heartbeat IPC: 0.299722 cumulative IPC: 0.303531 (Simulation time: 0 hr 39 min 20 sec) 
Heartbeat CPU 0 instructions: 760000000 cycles: 1943236540 heartbeat IPC: 0.298446 cumulative IPC: 0.303439 (Simulation time: 0 hr 39 min 57 sec) 
Heartbeat CPU 0 instructions: 770000002 cycles: 1977665455 heartbeat IPC: 0.290454 cumulative IPC: 0.303201 (Simulation time: 0 hr 40 min 34 sec) 
Heartbeat CPU 0 instructions: 780000000 cycles: 2009644464 heartbeat IPC: 0.312705 cumulative IPC: 0.30336 (Simulation time: 0 hr 41 min 10 sec) 
Heartbeat CPU 0 instructions: 790000000 cycles: 2042298496 heartbeat IPC: 0.306241 cumulative IPC: 0.303408 (Simulation time: 0 hr 41 min 46 sec) 
Heartbeat CPU 0 instructions: 800000000 cycles: 2072477781 heartbeat IPC: 0.331353 cumulative IPC: 0.303835 (Simulation time: 0 hr 42 min 21 sec) 
Heartbeat CPU 0 instructions: 810000000 cycles: 2103528930 heartbeat IPC: 0.322049 cumulative IPC: 0.304117 (Simulation time: 0 hr 42 min 56 sec) 
Heartbeat CPU 0 instructions: 820000000 cycles: 2136056466 heartbeat IPC: 0.307432 cumulative IPC: 0.30417 (Simulation time: 0 hr 43 min 31 sec) 
Heartbeat CPU 0 instructions: 830000000 cycles: 2172592960 heartbeat IPC: 0.273699 cumulative IPC: 0.303634 (Simulation time: 0 hr 44 min 9 sec) 
Heartbeat CPU 0 instructions: 840000000 cycles: 2204473823 heartbeat IPC: 0.313668 cumulative IPC: 0.303785 (Simulation time: 0 hr 44 min 44 sec) 
Heartbeat CPU 0 instructions: 850000000 cycles: 2239054122 heartbeat IPC: 0.289182 cumulative IPC: 0.30355 (Simulation time: 0 hr 45 min 21 sec) 
Heartbeat CPU 0 instructions: 860000000 cycles: 2272062479 heartbeat IPC: 0.302954 cumulative IPC: 0.303541 (Simulation time: 0 hr 45 min 56 sec) 
Heartbeat CPU 0 instructions: 870000002 cycles: 2306122865 heartbeat IPC: 0.293596 cumulative IPC: 0.303387 (Simulation time: 0 hr 46 min 33 sec) 
Heartbeat CPU 0 instructions: 880000000 cycles: 2337447310 heartbeat IPC: 0.319239 cumulative IPC: 0.303609 (Simulation time: 0 hr 47 min 8 sec) 
Heartbeat CPU 0 instructions: 890000000 cycles: 2369289051 heartbeat IPC: 0.314053 cumulative IPC: 0.303755 (Simulation time: 0 hr 47 min 44 sec) 
Heartbeat CPU 0 instructions: 900000000 cycles: 2403971121 heartbeat IPC: 0.288333 cumulative IPC: 0.303523 (Simulation time: 0 hr 48 min 22 sec) 
Heartbeat CPU 0 instructions: 910000001 cycles: 2435953983 heartbeat IPC: 0.312667 cumulative IPC: 0.303648 (Simulation time: 0 hr 48 min 57 sec) 
Heartbeat CPU 0 instructions: 920000000 cycles: 2469054284 heartbeat IPC: 0.302112 cumulative IPC: 0.303627 (Simulation time: 0 hr 49 min 34 sec) 
Heartbeat CPU 0 instructions: 930000001 cycles: 2502752428 heartbeat IPC: 0.296752 cumulative IPC: 0.303531 (Simulation time: 0 hr 50 min 10 sec) 
Heartbeat CPU 0 instructions: 940000000 cycles: 2534522328 heartbeat IPC: 0.314763 cumulative IPC: 0.303677 (Simulation time: 0 hr 50 min 45 sec) 
Heartbeat CPU 0 instructions: 950000001 cycles: 2570642152 heartbeat IPC: 0.276856 cumulative IPC: 0.303285 (Simulation time: 0 hr 51 min 23 sec) 
Heartbeat CPU 0 instructions: 960000000 cycles: 2605206307 heartbeat IPC: 0.289317 cumulative IPC: 0.303093 (Simulation time: 0 hr 51 min 59 sec) 
Heartbeat CPU 0 instructions: 970000000 cycles: 2638692493 heartbeat IPC: 0.298631 cumulative IPC: 0.303034 (Simulation time: 0 hr 52 min 36 sec) 
Heartbeat CPU 0 instructions: 980000000 cycles: 2673708267 heartbeat IPC: 0.285586 cumulative IPC: 0.302797 (Simulation time: 0 hr 53 min 14 sec) 
Heartbeat CPU 0 instructions: 990000000 cycles: 2705898343 heartbeat IPC: 0.310655 cumulative IPC: 0.302894 (Simulation time: 0 hr 53 min 50 sec) 
Heartbeat CPU 0 instructions: 1000000000 cycles: 2741226752 heartbeat IPC: 0.283058 cumulative IPC: 0.302629 (Simulation time: 0 hr 54 min 27 sec) 
Heartbeat CPU 0 instructions: 1010000000 cycles: 2775516831 heartbeat IPC: 0.29163 cumulative IPC: 0.302488 (Simulation time: 0 hr 55 min 2 sec) 
Heartbeat CPU 0 instructions: 1020000000 cycles: 2810165736 heartbeat IPC: 0.288609 cumulative IPC: 0.302311 (Simulation time: 0 hr 55 min 37 sec) 
Heartbeat CPU 0 instructions: 1030000003 cycles: 2843073860 heartbeat IPC: 0.303876 cumulative IPC: 0.302329 (Simulation time: 0 hr 56 min 11 sec) 
Heartbeat CPU 0 instructions: 1040000000 cycles: 2874304510 heartbeat IPC: 0.320198 cumulative IPC: 0.30253 (Simulation time: 0 hr 56 min 44 sec) 
Heartbeat CPU 0 instructions: 1050000000 cycles: 2907504769 heartbeat IPC: 0.301202 cumulative IPC: 0.302515 (Simulation time: 0 hr 57 min 18 sec) 
Heartbeat CPU 0 instructions: 1060000000 cycles: 2941190202 heartbeat IPC: 0.296864 cumulative IPC: 0.302448 (Simulation time: 0 hr 57 min 53 sec) 
Heartbeat CPU 0 instructions: 1070000002 cycles: 2976722406 heartbeat IPC: 0.281435 cumulative IPC: 0.302188 (Simulation time: 0 hr 58 min 29 sec) 
Heartbeat CPU 0 instructions: 1080000000 cycles: 3011416059 heartbeat IPC: 0.288237 cumulative IPC: 0.302022 (Simulation time: 0 hr 59 min 3 sec) 
Heartbeat CPU 0 instructions: 1090000001 cycles: 3043624532 heartbeat IPC: 0.310477 cumulative IPC: 0.302115 (Simulation time: 0 hr 59 min 37 sec) 
Heartbeat CPU 0 instructions: 1100000000 cycles: 3076576949 heartbeat IPC: 0.303468 cumulative IPC: 0.30213 (Simulation time: 1 hr 0 min 11 sec) 
Heartbeat CPU 0 instructions: 1110000000 cycles: 3107734128 heartbeat IPC: 0.320953 cumulative IPC: 0.302325 (Simulation time: 1 hr 0 min 44 sec) 
Heartbeat CPU 0 instructions: 1120000000 cycles: 3140740625 heartbeat IPC: 0.302971 cumulative IPC: 0.302332 (Simulation time: 1 hr 1 min 18 sec) 
Heartbeat CPU 0 instructions: 1130000002 cycles: 3172581628 heartbeat IPC: 0.314061 cumulative IPC: 0.302453 (Simulation time: 1 hr 1 min 51 sec) 
Heartbeat CPU 0 instructions: 1140000000 cycles: 3207794155 heartbeat IPC: 0.28399 cumulative IPC: 0.302244 (Simulation time: 1 hr 2 min 27 sec) 
Heartbeat CPU 0 instructions: 1150000002 cycles: 3236120014 heartbeat IPC: 0.353034 cumulative IPC: 0.302702 (Simulation time: 1 hr 2 min 58 sec) 
Heartbeat CPU 0 instructions: 1160000000 cycles: 3269384234 heartbeat IPC: 0.300623 cumulative IPC: 0.302681 (Simulation time: 1 hr 3 min 32 sec) 
Heartbeat CPU 0 instructions: 1170000000 cycles: 3303770767 heartbeat IPC: 0.290812 cumulative IPC: 0.302553 (Simulation time: 1 hr 4 min 7 sec) 
Heartbeat CPU 0 instructions: 1180000000 cycles: 3337082672 heartbeat IPC: 0.300193 cumulative IPC: 0.302529 (Simulation time: 1 hr 4 min 41 sec) 
Heartbeat CPU 0 instructions: 1190000001 cycles: 3369932509 heartbeat IPC: 0.304416 cumulative IPC: 0.302548 (Simulation time: 1 hr 5 min 15 sec) 
Heartbeat CPU 0 instructions: 1200000000 cycles: 3403085747 heartbeat IPC: 0.30163 cumulative IPC: 0.302539 (Simulation time: 1 hr 5 min 49 sec) 
Finished CPU 0 instructions: 1000000000 cycles: 3305362128 cumulative IPC: 0.302539 (Simulation time: 1 hr 5 min 49 sec) 

CPU 0 Branch Prediction Accuracy: 99.2793% MPKI: 1.70014

ChampSim completed all CPUs

Region of Interest Statistics

CPU 0 cumulative IPC: 0.302539 instructions: 1000000000 cycles: 3305362128
L1D TOTAL     ACCESS:  233812418  HIT:  205666639  MISS:   28145779
L1D LOAD      ACCESS:  187412335  HIT:  159851387  MISS:   27560948
L1D RFO       ACCESS:   46400083  HIT:   45815252  MISS:     584831
L1D PREFETCH  ACCESS:          0  HIT:          0  MISS:          0
L1D WRITEBACK ACCESS:          0  HIT:          0  MISS:          0
L1D PREFETCH  REQUESTED:          0  ISSUED:          0  USEFUL:          0  USELESS:          0
L1I TOTAL     ACCESS:  320984292  HIT:  317558208  MISS:    3426084
L1I LOAD      ACCESS:  320984292  HIT:  317558208  MISS:    3426084
L1I RFO       ACCESS:          0  HIT:          0  MISS:          0
L1I PREFETCH  ACCESS:          0  HIT:          0  MISS:          0
L1I WRITEBACK ACCESS:          0  HIT:          0  MISS:          0
L1I PREFETCH  REQUESTED:          0  ISSUED:          0  USEFUL:          0  USELESS:          0
L2C TOTAL     ACCESS:   47763123  HIT:   13944443  MISS:   33818680
L2C LOAD      ACCESS:   30986379  HIT:    9035336  MISS:   21951043
L2C RFO       ACCESS:     584761  HIT:     282278  MISS:     302483
L2C PREFETCH  ACCESS:   14975966  HIT:    3432436  MISS:   11543530
L2C WRITEBACK ACCESS:    1216017  HIT:    1194393  MISS:      21624
L2C PREFETCH  REQUESTED:   26046337  ISSUED:   26042870  USEFUL:    6636521  USELESS:    7930189
LLC TOTAL     ACCESS:   35226198  HIT:    5724310  MISS:   29501888
LLC LOAD      ACCESS:   19263045  HIT:    2474539  MISS:   16788506
LLC RFO       ACCESS:     301803  HIT:      81712  MISS:     220091
LLC PREFETCH  ACCESS:   15095567  HIT:    2604128  MISS:   12491439
LLC WRITEBACK ACCESS:     565783  HIT:     563931  MISS:       1852
LLC PREFETCH  REQUESTED:          0  ISSUED:          0  USEFUL:     412426  USELESS:   14743170
Major fault: 0 Minor fault: 13314
Printing all the perceptron weights to: perc_weights_0.csv

DRAM Statistics
 CHANNEL 0
 RQ ROW_BUFFER_HIT:   22569875  ROW_BUFFER_MISS:    6922460
 DBUS_CONGESTED:   11053228
 WQ ROW_BUFFER_HIT:      33667  ROW_BUFFER_MISS:     301751  FULL:          0

 AVG_CONGESTED_CYCLE: 11
