Initialize SIGNATURE TABLE
ST_SET: 1
ST_WAY: 256
ST_TAG_BIT: 16
ST_TAG_MASK: ffff

Initialize PATTERN TABLE
PT_SET: 512
PT_WAY: 4
SIG_DELTA_BIT: 7
C_SIG_BIT: 4
C_DELTA_BIT: 4

Initialize PREFETCH FILTER
FILTER_SET: 1024

Initialize PERCEPTRON
PERC_ENTRIES: 4096
PERC_FEATURES: 9

*** ChampSim Multicore Out-of-Order Simulator ***

Warmup Instructions: 200000000
Simulation Instructions: 1000000000
Number of CPUs: 1
LLC sets: 2048
LLC ways: 16
Off-chip DRAM Size: 4096 MB Channels: 1 Width: 64-bit Data Rate: 1600 MT/s

CPU 0 runs ./scratch/user/djimenez/champsim-traces/speccpu2017/xz/649.fotonik3d_s/649.fotonik3d_s-10881B.champsimtrace.xz
Heartbeat CPU 0 instructions: 10000001 cycles: 8411247 heartbeat IPC: 1.18888 cumulative IPC: 1.18888 (Simulation time: 0 hr 0 min 31 sec) 
Heartbeat CPU 0 instructions: 20000000 cycles: 16787277 heartbeat IPC: 1.19388 cumulative IPC: 1.19138 (Simulation time: 0 hr 1 min 1 sec) 
Heartbeat CPU 0 instructions: 30000000 cycles: 25158832 heartbeat IPC: 1.19452 cumulative IPC: 1.19242 (Simulation time: 0 hr 1 min 31 sec) 
Heartbeat CPU 0 instructions: 40000000 cycles: 33538161 heartbeat IPC: 1.19341 cumulative IPC: 1.19267 (Simulation time: 0 hr 2 min 2 sec) 
Heartbeat CPU 0 instructions: 50000001 cycles: 41957821 heartbeat IPC: 1.1877 cumulative IPC: 1.19167 (Simulation time: 0 hr 2 min 32 sec) 
Heartbeat CPU 0 instructions: 60000000 cycles: 50340285 heartbeat IPC: 1.19297 cumulative IPC: 1.19189 (Simulation time: 0 hr 3 min 3 sec) 
Heartbeat CPU 0 instructions: 70000003 cycles: 58710339 heartbeat IPC: 1.19474 cumulative IPC: 1.19229 (Simulation time: 0 hr 3 min 37 sec) 
Heartbeat CPU 0 instructions: 80000000 cycles: 67100014 heartbeat IPC: 1.19194 cumulative IPC: 1.19225 (Simulation time: 0 hr 4 min 10 sec) 
Heartbeat CPU 0 instructions: 90000001 cycles: 75506066 heartbeat IPC: 1.18962 cumulative IPC: 1.19196 (Simulation time: 0 hr 4 min 42 sec) 
Heartbeat CPU 0 instructions: 100000000 cycles: 83884051 heartbeat IPC: 1.1936 cumulative IPC: 1.19212 (Simulation time: 0 hr 5 min 14 sec) 
Heartbeat CPU 0 instructions: 110000002 cycles: 92265059 heartbeat IPC: 1.19317 cumulative IPC: 1.19222 (Simulation time: 0 hr 5 min 47 sec) 
Heartbeat CPU 0 instructions: 120000000 cycles: 100655908 heartbeat IPC: 1.19177 cumulative IPC: 1.19218 (Simulation time: 0 hr 6 min 19 sec) 
Heartbeat CPU 0 instructions: 130000001 cycles: 109058593 heartbeat IPC: 1.1901 cumulative IPC: 1.19202 (Simulation time: 0 hr 6 min 51 sec) 
Heartbeat CPU 0 instructions: 140000000 cycles: 117436781 heartbeat IPC: 1.19358 cumulative IPC: 1.19213 (Simulation time: 0 hr 7 min 24 sec) 
Heartbeat CPU 0 instructions: 150000002 cycles: 125805715 heartbeat IPC: 1.1949 cumulative IPC: 1.19231 (Simulation time: 0 hr 7 min 56 sec) 
Heartbeat CPU 0 instructions: 160000000 cycles: 134203174 heartbeat IPC: 1.19084 cumulative IPC: 1.19222 (Simulation time: 0 hr 8 min 29 sec) 
Heartbeat CPU 0 instructions: 170000000 cycles: 142605395 heartbeat IPC: 1.19016 cumulative IPC: 1.1921 (Simulation time: 0 hr 9 min 1 sec) 
Heartbeat CPU 0 instructions: 180000000 cycles: 150977544 heartbeat IPC: 1.19444 cumulative IPC: 1.19223 (Simulation time: 0 hr 9 min 33 sec) 
Heartbeat CPU 0 instructions: 190000001 cycles: 159359992 heartbeat IPC: 1.19297 cumulative IPC: 1.19227 (Simulation time: 0 hr 10 min 5 sec) 
Heartbeat CPU 0 instructions: 200000000 cycles: 167749190 heartbeat IPC: 1.19201 cumulative IPC: 1.19226 (Simulation time: 0 hr 10 min 37 sec) 

Warmup complete CPU 0 instructions: 200000001 cycles: 167749209 (Simulation time: 0 hr 10 min 37 sec) 

Heartbeat CPU 0 instructions: 210000002 cycles: 186529766 heartbeat IPC: 0.532465 cumulative IPC: 0.532466 (Simulation time: 0 hr 11 min 18 sec) 
Heartbeat CPU 0 instructions: 220000000 cycles: 205192824 heartbeat IPC: 0.535818 cumulative IPC: 0.534136 (Simulation time: 0 hr 11 min 59 sec) 
Heartbeat CPU 0 instructions: 230000002 cycles: 223864974 heartbeat IPC: 0.535557 cumulative IPC: 0.534609 (Simulation time: 0 hr 12 min 39 sec) 
Heartbeat CPU 0 instructions: 240000000 cycles: 242556697 heartbeat IPC: 0.534996 cumulative IPC: 0.534706 (Simulation time: 0 hr 13 min 20 sec) 
Heartbeat CPU 0 instructions: 250000001 cycles: 261250333 heartbeat IPC: 0.534941 cumulative IPC: 0.534753 (Simulation time: 0 hr 14 min 1 sec) 
Heartbeat CPU 0 instructions: 260000000 cycles: 280017821 heartbeat IPC: 0.532836 cumulative IPC: 0.534433 (Simulation time: 0 hr 14 min 41 sec) 
Heartbeat CPU 0 instructions: 270000001 cycles: 298714413 heartbeat IPC: 0.534857 cumulative IPC: 0.534493 (Simulation time: 0 hr 15 min 20 sec) 
Heartbeat CPU 0 instructions: 280000000 cycles: 344685453 heartbeat IPC: 0.217528 cumulative IPC: 0.45214 (Simulation time: 0 hr 16 min 11 sec) 
Heartbeat CPU 0 instructions: 290000000 cycles: 397927951 heartbeat IPC: 0.18782 cumulative IPC: 0.391 (Simulation time: 0 hr 17 min 4 sec) 
Heartbeat CPU 0 instructions: 300000000 cycles: 416661896 heartbeat IPC: 0.53379 cumulative IPC: 0.401747 (Simulation time: 0 hr 17 min 45 sec) 
Heartbeat CPU 0 instructions: 310000002 cycles: 435553605 heartbeat IPC: 0.529333 cumulative IPC: 0.410748 (Simulation time: 0 hr 18 min 26 sec) 
Heartbeat CPU 0 instructions: 320000000 cycles: 454288397 heartbeat IPC: 0.533766 cumulative IPC: 0.418791 (Simulation time: 0 hr 19 min 7 sec) 
Heartbeat CPU 0 instructions: 330000002 cycles: 473115204 heartbeat IPC: 0.531158 cumulative IPC: 0.425719 (Simulation time: 0 hr 19 min 47 sec) 
Heartbeat CPU 0 instructions: 340000000 cycles: 491807866 heartbeat IPC: 0.534969 cumulative IPC: 0.432021 (Simulation time: 0 hr 20 min 27 sec) 
Heartbeat CPU 0 instructions: 350000003 cycles: 510531062 heartbeat IPC: 0.534097 cumulative IPC: 0.437596 (Simulation time: 0 hr 21 min 8 sec) 
Heartbeat CPU 0 instructions: 360000000 cycles: 529256819 heartbeat IPC: 0.534024 cumulative IPC: 0.442591 (Simulation time: 0 hr 21 min 49 sec) 
Heartbeat CPU 0 instructions: 370000000 cycles: 547978932 heartbeat IPC: 0.534128 cumulative IPC: 0.447098 (Simulation time: 0 hr 22 min 29 sec) 
Heartbeat CPU 0 instructions: 380000000 cycles: 566672942 heartbeat IPC: 0.534931 cumulative IPC: 0.451214 (Simulation time: 0 hr 23 min 10 sec) 
Heartbeat CPU 0 instructions: 390000001 cycles: 585347448 heartbeat IPC: 0.535489 cumulative IPC: 0.454983 (Simulation time: 0 hr 23 min 51 sec) 
Heartbeat CPU 0 instructions: 400000000 cycles: 604073964 heartbeat IPC: 0.534002 cumulative IPC: 0.458374 (Simulation time: 0 hr 24 min 32 sec) 
Heartbeat CPU 0 instructions: 410000000 cycles: 622785983 heartbeat IPC: 0.534416 cumulative IPC: 0.461501 (Simulation time: 0 hr 25 min 12 sec) 
Heartbeat CPU 0 instructions: 420000000 cycles: 641491372 heartbeat IPC: 0.534605 cumulative IPC: 0.464388 (Simulation time: 0 hr 25 min 53 sec) 
Heartbeat CPU 0 instructions: 430000003 cycles: 660257307 heartbeat IPC: 0.532881 cumulative IPC: 0.466997 (Simulation time: 0 hr 26 min 33 sec) 
Heartbeat CPU 0 instructions: 440000000 cycles: 678956381 heartbeat IPC: 0.534786 cumulative IPC: 0.469477 (Simulation time: 0 hr 27 min 13 sec) 
Heartbeat CPU 0 instructions: 450000002 cycles: 697710876 heartbeat IPC: 0.533206 cumulative IPC: 0.471732 (Simulation time: 0 hr 27 min 54 sec) 
Heartbeat CPU 0 instructions: 460000000 cycles: 716462976 heartbeat IPC: 0.533274 cumulative IPC: 0.473835 (Simulation time: 0 hr 28 min 35 sec) 
Heartbeat CPU 0 instructions: 470000003 cycles: 735268910 heartbeat IPC: 0.531747 cumulative IPC: 0.475754 (Simulation time: 0 hr 29 min 16 sec) 
Heartbeat CPU 0 instructions: 480000000 cycles: 753963415 heartbeat IPC: 0.534916 cumulative IPC: 0.477641 (Simulation time: 0 hr 29 min 57 sec) 
Heartbeat CPU 0 instructions: 490000000 cycles: 772696626 heartbeat IPC: 0.533811 cumulative IPC: 0.479381 (Simulation time: 0 hr 30 min 38 sec) 
Heartbeat CPU 0 instructions: 500000000 cycles: 791426493 heartbeat IPC: 0.533907 cumulative IPC: 0.481018 (Simulation time: 0 hr 31 min 19 sec) 
Heartbeat CPU 0 instructions: 510000000 cycles: 810129662 heartbeat IPC: 0.534669 cumulative IPC: 0.48258 (Simulation time: 0 hr 31 min 59 sec) 
Heartbeat CPU 0 instructions: 520000000 cycles: 828815210 heartbeat IPC: 0.535173 cumulative IPC: 0.484067 (Simulation time: 0 hr 32 min 39 sec) 
Heartbeat CPU 0 instructions: 530000002 cycles: 847532818 heartbeat IPC: 0.534256 cumulative IPC: 0.485449 (Simulation time: 0 hr 33 min 20 sec) 
Heartbeat CPU 0 instructions: 540000000 cycles: 866288617 heartbeat IPC: 0.533168 cumulative IPC: 0.48673 (Simulation time: 0 hr 34 min 1 sec) 
Heartbeat CPU 0 instructions: 550000000 cycles: 884979158 heartbeat IPC: 0.53503 cumulative IPC: 0.487989 (Simulation time: 0 hr 34 min 42 sec) 
Heartbeat CPU 0 instructions: 560000000 cycles: 903688373 heartbeat IPC: 0.534496 cumulative IPC: 0.489171 (Simulation time: 0 hr 35 min 22 sec) 
Heartbeat CPU 0 instructions: 570000001 cycles: 922398112 heartbeat IPC: 0.534481 cumulative IPC: 0.490294 (Simulation time: 0 hr 36 min 3 sec) 
Heartbeat CPU 0 instructions: 580000000 cycles: 941102792 heartbeat IPC: 0.534626 cumulative IPC: 0.491366 (Simulation time: 0 hr 36 min 43 sec) 
Heartbeat CPU 0 instructions: 590000003 cycles: 959860895 heartbeat IPC: 0.533103 cumulative IPC: 0.492355 (Simulation time: 0 hr 37 min 24 sec) 
Heartbeat CPU 0 instructions: 600000000 cycles: 978540929 heartbeat IPC: 0.535331 cumulative IPC: 0.493345 (Simulation time: 0 hr 38 min 5 sec) 
Heartbeat CPU 0 instructions: 610000000 cycles: 995258429 heartbeat IPC: 0.598176 cumulative IPC: 0.495463 (Simulation time: 0 hr 38 min 44 sec) 
Heartbeat CPU 0 instructions: 620000000 cycles: 1007196254 heartbeat IPC: 0.837674 cumulative IPC: 0.500329 (Simulation time: 0 hr 39 min 21 sec) 
Heartbeat CPU 0 instructions: 630000002 cycles: 1019162561 heartbeat IPC: 0.83568 cumulative IPC: 0.505043 (Simulation time: 0 hr 39 min 59 sec) 
Heartbeat CPU 0 instructions: 640000000 cycles: 1031104587 heartbeat IPC: 0.837379 cumulative IPC: 0.50964 (Simulation time: 0 hr 40 min 38 sec) 
Heartbeat CPU 0 instructions: 650000002 cycles: 1043066515 heartbeat IPC: 0.835986 cumulative IPC: 0.514099 (Simulation time: 0 hr 41 min 16 sec) 
Heartbeat CPU 0 instructions: 660000000 cycles: 1055021986 heartbeat IPC: 0.836437 cumulative IPC: 0.518443 (Simulation time: 0 hr 41 min 54 sec) 
Heartbeat CPU 0 instructions: 670000000 cycles: 1066965204 heartbeat IPC: 0.837295 cumulative IPC: 0.522678 (Simulation time: 0 hr 42 min 33 sec) 
Heartbeat CPU 0 instructions: 680000000 cycles: 1079064651 heartbeat IPC: 0.826484 cumulative IPC: 0.526711 (Simulation time: 0 hr 43 min 11 sec) 
Heartbeat CPU 0 instructions: 690000003 cycles: 1091246581 heartbeat IPC: 0.820888 cumulative IPC: 0.530592 (Simulation time: 0 hr 43 min 45 sec) 
Heartbeat CPU 0 instructions: 700000000 cycles: 1102818419 heartbeat IPC: 0.864167 cumulative IPC: 0.53472 (Simulation time: 0 hr 44 min 21 sec) 
Heartbeat CPU 0 instructions: 710000000 cycles: 1114362290 heartbeat IPC: 0.866261 cumulative IPC: 0.538763 (Simulation time: 0 hr 44 min 56 sec) 
Heartbeat CPU 0 instructions: 720000000 cycles: 1125930836 heartbeat IPC: 0.864413 cumulative IPC: 0.542695 (Simulation time: 0 hr 45 min 31 sec) 
Heartbeat CPU 0 instructions: 730000001 cycles: 1137463942 heartbeat IPC: 0.867069 cumulative IPC: 0.546552 (Simulation time: 0 hr 46 min 6 sec) 
Heartbeat CPU 0 instructions: 740000000 cycles: 1149009633 heartbeat IPC: 0.866124 cumulative IPC: 0.550313 (Simulation time: 0 hr 46 min 41 sec) 
Heartbeat CPU 0 instructions: 750000003 cycles: 1160552202 heartbeat IPC: 0.866359 cumulative IPC: 0.553987 (Simulation time: 0 hr 47 min 17 sec) 
Heartbeat CPU 0 instructions: 760000000 cycles: 1172092878 heartbeat IPC: 0.8665 cumulative IPC: 0.557578 (Simulation time: 0 hr 47 min 52 sec) 
Heartbeat CPU 0 instructions: 770000000 cycles: 1183697393 heartbeat IPC: 0.861734 cumulative IPC: 0.561052 (Simulation time: 0 hr 48 min 28 sec) 
Heartbeat CPU 0 instructions: 780000000 cycles: 1195689178 heartbeat IPC: 0.833904 cumulative IPC: 0.564235 (Simulation time: 0 hr 49 min 7 sec) 
Heartbeat CPU 0 instructions: 790000000 cycles: 1207687909 heartbeat IPC: 0.833421 cumulative IPC: 0.567341 (Simulation time: 0 hr 49 min 45 sec) 
Heartbeat CPU 0 instructions: 800000000 cycles: 1219761958 heartbeat IPC: 0.828223 cumulative IPC: 0.570335 (Simulation time: 0 hr 50 min 23 sec) 
Heartbeat CPU 0 instructions: 810000000 cycles: 1231832508 heartbeat IPC: 0.828463 cumulative IPC: 0.573263 (Simulation time: 0 hr 51 min 1 sec) 
Heartbeat CPU 0 instructions: 820000000 cycles: 1243858230 heartbeat IPC: 0.831551 cumulative IPC: 0.57615 (Simulation time: 0 hr 51 min 38 sec) 
Heartbeat CPU 0 instructions: 830000003 cycles: 1255887567 heartbeat IPC: 0.831301 cumulative IPC: 0.57897 (Simulation time: 0 hr 52 min 16 sec) 
Heartbeat CPU 0 instructions: 840000000 cycles: 1267934599 heartbeat IPC: 0.83008 cumulative IPC: 0.58172 (Simulation time: 0 hr 52 min 54 sec) 
Heartbeat CPU 0 instructions: 850000003 cycles: 1279967209 heartbeat IPC: 0.831075 cumulative IPC: 0.584418 (Simulation time: 0 hr 53 min 32 sec) 
Heartbeat CPU 0 instructions: 860000000 cycles: 1292003852 heartbeat IPC: 0.830796 cumulative IPC: 0.587056 (Simulation time: 0 hr 54 min 10 sec) 
Heartbeat CPU 0 instructions: 870000000 cycles: 1304036594 heartbeat IPC: 0.831066 cumulative IPC: 0.58964 (Simulation time: 0 hr 54 min 47 sec) 
Heartbeat CPU 0 instructions: 880000000 cycles: 1316085084 heartbeat IPC: 0.82998 cumulative IPC: 0.592161 (Simulation time: 0 hr 55 min 23 sec) 
Heartbeat CPU 0 instructions: 890000000 cycles: 1328127731 heartbeat IPC: 0.830382 cumulative IPC: 0.594634 (Simulation time: 0 hr 55 min 59 sec) 
Heartbeat CPU 0 instructions: 900000000 cycles: 1340152570 heartbeat IPC: 0.831612 cumulative IPC: 0.597064 (Simulation time: 0 hr 56 min 35 sec) 
Heartbeat CPU 0 instructions: 910000002 cycles: 1352177269 heartbeat IPC: 0.831622 cumulative IPC: 0.599445 (Simulation time: 0 hr 57 min 12 sec) 
Heartbeat CPU 0 instructions: 920000000 cycles: 1364194288 heartbeat IPC: 0.832153 cumulative IPC: 0.601783 (Simulation time: 0 hr 57 min 47 sec) 
Heartbeat CPU 0 instructions: 930000000 cycles: 1376276454 heartbeat IPC: 0.827666 cumulative IPC: 0.604041 (Simulation time: 0 hr 58 min 24 sec) 
Heartbeat CPU 0 instructions: 940000000 cycles: 1388325325 heartbeat IPC: 0.829953 cumulative IPC: 0.606271 (Simulation time: 0 hr 58 min 58 sec) 
Heartbeat CPU 0 instructions: 950000003 cycles: 1400368653 heartbeat IPC: 0.830335 cumulative IPC: 0.60846 (Simulation time: 0 hr 59 min 35 sec) 
Heartbeat CPU 0 instructions: 960000000 cycles: 1412403707 heartbeat IPC: 0.830906 cumulative IPC: 0.610611 (Simulation time: 1 hr 0 min 11 sec) 
Heartbeat CPU 0 instructions: 970000000 cycles: 1424462987 heartbeat IPC: 0.829237 cumulative IPC: 0.612709 (Simulation time: 1 hr 0 min 47 sec) 
Heartbeat CPU 0 instructions: 980000000 cycles: 1436529305 heartbeat IPC: 0.828753 cumulative IPC: 0.614764 (Simulation time: 1 hr 1 min 22 sec) 
Heartbeat CPU 0 instructions: 990000000 cycles: 1448597459 heartbeat IPC: 0.828627 cumulative IPC: 0.616779 (Simulation time: 1 hr 1 min 58 sec) 
Heartbeat CPU 0 instructions: 1000000000 cycles: 1460702866 heartbeat IPC: 0.826077 cumulative IPC: 0.618738 (Simulation time: 1 hr 2 min 34 sec) 
Heartbeat CPU 0 instructions: 1010000002 cycles: 1472845914 heartbeat IPC: 0.823517 cumulative IPC: 0.620644 (Simulation time: 1 hr 3 min 10 sec) 
Heartbeat CPU 0 instructions: 1020000000 cycles: 1484897501 heartbeat IPC: 0.829766 cumulative IPC: 0.622557 (Simulation time: 1 hr 3 min 46 sec) 
Heartbeat CPU 0 instructions: 1030000001 cycles: 1498012949 heartbeat IPC: 0.76246 cumulative IPC: 0.623936 (Simulation time: 1 hr 4 min 22 sec) 
Heartbeat CPU 0 instructions: 1040000000 cycles: 1510801571 heartbeat IPC: 0.781945 cumulative IPC: 0.625441 (Simulation time: 1 hr 4 min 58 sec) 
Heartbeat CPU 0 instructions: 1050000000 cycles: 1523431702 heartbeat IPC: 0.791757 cumulative IPC: 0.62699 (Simulation time: 1 hr 5 min 34 sec) 
Heartbeat CPU 0 instructions: 1060000000 cycles: 1536089047 heartbeat IPC: 0.790055 cumulative IPC: 0.628499 (Simulation time: 1 hr 6 min 9 sec) 
Heartbeat CPU 0 instructions: 1070000001 cycles: 1548750610 heartbeat IPC: 0.789792 cumulative IPC: 0.629978 (Simulation time: 1 hr 6 min 41 sec) 
Heartbeat CPU 0 instructions: 1080000000 cycles: 1561403937 heartbeat IPC: 0.790306 cumulative IPC: 0.631433 (Simulation time: 1 hr 7 min 14 sec) 
Heartbeat CPU 0 instructions: 1090000002 cycles: 1574056938 heartbeat IPC: 0.790326 cumulative IPC: 0.632863 (Simulation time: 1 hr 7 min 47 sec) 
Heartbeat CPU 0 instructions: 1100000000 cycles: 1586744524 heartbeat IPC: 0.788172 cumulative IPC: 0.634252 (Simulation time: 1 hr 8 min 19 sec) 
Heartbeat CPU 0 instructions: 1110000001 cycles: 1599472160 heartbeat IPC: 0.785692 cumulative IPC: 0.635598 (Simulation time: 1 hr 8 min 52 sec) 
Heartbeat CPU 0 instructions: 1120000000 cycles: 1612162130 heartbeat IPC: 0.788024 cumulative IPC: 0.636937 (Simulation time: 1 hr 9 min 24 sec) 
Heartbeat CPU 0 instructions: 1130000002 cycles: 1624854506 heartbeat IPC: 0.787875 cumulative IPC: 0.638252 (Simulation time: 1 hr 9 min 57 sec) 
Heartbeat CPU 0 instructions: 1140000000 cycles: 1637540092 heartbeat IPC: 0.788296 cumulative IPC: 0.639547 (Simulation time: 1 hr 10 min 29 sec) 
Heartbeat CPU 0 instructions: 1150000003 cycles: 1650229126 heartbeat IPC: 0.788082 cumulative IPC: 0.640818 (Simulation time: 1 hr 11 min 1 sec) 
Heartbeat CPU 0 instructions: 1160000000 cycles: 1662869814 heartbeat IPC: 0.791096 cumulative IPC: 0.642089 (Simulation time: 1 hr 11 min 34 sec) 
Heartbeat CPU 0 instructions: 1170000003 cycles: 1675529193 heartbeat IPC: 0.789928 cumulative IPC: 0.64333 (Simulation time: 1 hr 12 min 6 sec) 
Heartbeat CPU 0 instructions: 1180000000 cycles: 1688167045 heartbeat IPC: 0.791273 cumulative IPC: 0.64456 (Simulation time: 1 hr 12 min 39 sec) 
Heartbeat CPU 0 instructions: 1190000003 cycles: 1700868770 heartbeat IPC: 0.787295 cumulative IPC: 0.645742 (Simulation time: 1 hr 13 min 12 sec) 
Heartbeat CPU 0 instructions: 1200000000 cycles: 1713559931 heartbeat IPC: 0.78795 cumulative IPC: 0.64691 (Simulation time: 1 hr 13 min 44 sec) 
Finished CPU 0 instructions: 1000000000 cycles: 1545810750 cumulative IPC: 0.64691 (Simulation time: 1 hr 13 min 44 sec) 

CPU 0 Branch Prediction Accuracy: 99.7591% MPKI: 0.02718

ChampSim completed all CPUs

Region of Interest Statistics

CPU 0 cumulative IPC: 0.64691 instructions: 1000000000 cycles: 1545810750
L1D TOTAL     ACCESS:  562407948  HIT:  541679388  MISS:   20728560
L1D LOAD      ACCESS:  498063514  HIT:  477335280  MISS:   20728234
L1D RFO       ACCESS:   64344434  HIT:   64344108  MISS:        326
L1D PREFETCH  ACCESS:          0  HIT:          0  MISS:          0
L1D WRITEBACK ACCESS:          0  HIT:          0  MISS:          0
L1D PREFETCH  REQUESTED:          0  ISSUED:          0  USEFUL:          0  USELESS:          0
L1I TOTAL     ACCESS:  287410870  HIT:  287410536  MISS:        334
L1I LOAD      ACCESS:  287410870  HIT:  287410536  MISS:        334
L1I RFO       ACCESS:          0  HIT:          0  MISS:          0
L1I PREFETCH  ACCESS:          0  HIT:          0  MISS:          0
L1I WRITEBACK ACCESS:          0  HIT:          0  MISS:          0
L1I PREFETCH  REQUESTED:          0  ISSUED:          0  USEFUL:          0  USELESS:          0
L2C TOTAL     ACCESS:   52932431  HIT:   33494179  MISS:   19438252
L2C LOAD      ACCESS:   20728564  HIT:   17483953  MISS:    3244611
L2C RFO       ACCESS:        318  HIT:        297  MISS:         21
L2C PREFETCH  ACCESS:   23406095  HIT:    7212487  MISS:   16193608
L2C WRITEBACK ACCESS:    8797454  HIT:    8797442  MISS:         12
L2C PREFETCH  REQUESTED:   27663453  ISSUED:   27654954  USEFUL:   17095947  USELESS:    2512684
LLC TOTAL     ACCESS:   28448805  HIT:   10811672  MISS:   17637133
LLC LOAD      ACCESS:    3150902  HIT:     547782  MISS:    2603120
LLC RFO       ACCESS:         19  HIT:          8  MISS:         11
LLC PREFETCH  ACCESS:   16504771  HIT:    1470793  MISS:   15033978
LLC WRITEBACK ACCESS:    8793113  HIT:    8793089  MISS:         24
LLC PREFETCH  REQUESTED:          0  ISSUED:          0  USEFUL:     113527  USELESS:   17908594
Major fault: 0 Minor fault: 864441
Printing all the perceptron weights to: perc_weights_0.csv

DRAM Statistics
 CHANNEL 0
 RQ ROW_BUFFER_HIT:   12760650  ROW_BUFFER_MISS:    4876459
 DBUS_CONGESTED:   14266749
 WQ ROW_BUFFER_HIT:    3414902  ROW_BUFFER_MISS:    5376488  FULL:          0

 AVG_CONGESTED_CYCLE: 13
